/*--------------------------------*- C++ -*----------------------------------*\
  =========                 |
  \\      /  F ield         | OpenFOAM: The Open Source CFD Toolbox
   \\    /   O peration     | Website:  https://openfoam.org
    \\  /    A nd           | Version:  6
     \\/     M anipulation  |
\*---------------------------------------------------------------------------*/
FoamFile
{
    version     2.0;
    format      ascii;
    class       dictionary;
    object      surfaceFeaturesDict;
}
// * * * * * * * * * * * * * * * * * * * * * * * * * * * * * * * * * * * * * //

surfaces ("wall_aorta.stl" "inlet.stl" "outlet1.stl" "outlet2.stl" "outlet3.stl" "outlet4.stl");
// Identify a feature when angle between faces < includedAngle>
includedAngle   170; // angle between the two neighbouring faces of the .stl files
extractionMethod     extractFromSurface;

subsetFeatures
{
    // Include only edges that intersect the plane with (normal)(basePoint)
    // plane               (1 0 0)(0 0 0);

    // Include only edges inside the box
    // insideBox           (0 0 0)(1 1 1);

    // Include only edges outside the box
    // outsideBox          (0 0 0)(1 1 1);

    // Include nonManifold edges (edges with >2 connected faces)
    nonManifoldEdges    yes;

    // Include open edges (edges with 1 connected face)
    openEdges           yes;
}

trimFeatures
{
    // Remove features with fewer than the specified number of edges
    minElem         0;

    // Remove features shorter than the specified cumulative length
    minLen          0.0;
}


writeObj	yes; 
verboseObj          yes;

// ************************************************************************* //
